<?xml version="1.0" encoding="UTF-8"?>

<!-- generated on 2023-01-13 14:58:29 by Eclipse SUMO netedit Version 1.15.0
-->

<routes xmlns:xsi="http://www.w3.org/2001/XMLSchema-instance" xsi:noNamespaceSchemaLocation="http://sumo.dlr.de/xsd/routes_file.xsd">
    <!-- Routes -->
    <route id="r_0" edges="E2 E3"/>
    <route id="r_1" edges="E0 E1"/>
    <route id="r_2" edges="-E1 -E0"/>
    <route id="r_3" edges="-E3 -E2"/>
    <!-- Vehicles, persons and containers (sorted by depart) -->
    <trip id="t_0" depart="0.00" color="red" from="E2" to="E3"/>
    <flow id="f_0" begin="0.00" color="blue" from="E0" to="E1" end="3600.00" vehsPerHour="1800.00"/>
    <flow id="f_1" begin="0.00" color="blue" from="-E1" to="-E0" end="3600.00" vehsPerHour="1800.00"/>
</routes>
