<?xml version="1.0" encoding="UTF-8"?>

<!-- generated on 2023-01-13 14:51:44 by Eclipse SUMO netedit Version 1.15.0
<configuration xmlns:xsi="http://www.w3.org/2001/XMLSchema-instance" xsi:noNamespaceSchemaLocation="http://sumo.dlr.de/xsd/netconvertConfiguration.xsd">

    <output>
        <output-file value="C:\Users\dlwog\Desktop\project\scenario_1.net.xml"/>
    </output>

    <processing>
        <offset.disable-normalization value="true"/>
    </processing>

    <junctions>
        <no-turnarounds value="true"/>
    </junctions>

    <netedit>
        <route-files value="C:\Users\dlwog\Desktop\project\scenario_1.rou.xml"/>
    </netedit>

</configuration>
-->

<net version="1.9" junctionCornerDetail="5" limitTurnSpeed="5.50" xmlns:xsi="http://www.w3.org/2001/XMLSchema-instance" xsi:noNamespaceSchemaLocation="http://sumo.dlr.de/xsd/net_file.xsd">

    <location netOffset="0.00,0.00" convBoundary="-100.00,0.00,100.00,200.00" origBoundary="10000000000.00,10000000000.00,-10000000000.00,-10000000000.00" projParameter="!"/>

    <edge id=":J1_0" function="internal">
        <lane id=":J1_0_0" index="0" speed="6.51" length="9.03" shape="-1.60,107.20 -1.95,104.75 -3.00,103.00 -4.75,101.95 -7.20,101.60"/>
    </edge>
    <edge id=":J1_1" function="internal">
        <lane id=":J1_1_0" index="0" speed="100.00" length="14.40" shape="-1.60,107.20 -1.60,92.80"/>
    </edge>
    <edge id=":J1_2" function="internal">
        <lane id=":J1_2_0" index="0" speed="8.00" length="4.07" shape="-1.60,107.20 -1.05,103.35 -0.96,103.20"/>
    </edge>
    <edge id=":J1_12" function="internal">
        <lane id=":J1_12_0" index="0" speed="8.00" length="10.13" shape="-0.96,103.20 0.60,100.60 3.35,98.95 7.20,98.40"/>
    </edge>
    <edge id=":J1_3" function="internal">
        <lane id=":J1_3_0" index="0" speed="6.51" length="9.03" shape="7.20,101.60 4.75,101.95 3.00,103.00 1.95,104.75 1.60,107.20"/>
    </edge>
    <edge id=":J1_4" function="internal">
        <lane id=":J1_4_0" index="0" speed="100.00" length="14.40" shape="7.20,101.60 -7.20,101.60"/>
    </edge>
    <edge id=":J1_5" function="internal">
        <lane id=":J1_5_0" index="0" speed="8.00" length="14.19" shape="7.20,101.60 3.35,101.05 0.60,99.40 -1.05,96.65 -1.60,92.80"/>
    </edge>
    <edge id=":J1_6" function="internal">
        <lane id=":J1_6_0" index="0" speed="6.51" length="9.03" shape="1.60,92.80 1.95,95.25 3.00,97.00 4.75,98.05 7.20,98.40"/>
    </edge>
    <edge id=":J1_7" function="internal">
        <lane id=":J1_7_0" index="0" speed="100.00" length="14.40" shape="1.60,92.80 1.60,107.20"/>
    </edge>
    <edge id=":J1_8" function="internal">
        <lane id=":J1_8_0" index="0" speed="8.00" length="4.07" shape="1.60,92.80 1.05,96.65 0.96,96.80"/>
    </edge>
    <edge id=":J1_13" function="internal">
        <lane id=":J1_13_0" index="0" speed="8.00" length="10.13" shape="0.96,96.80 -0.60,99.40 -3.35,101.05 -7.20,101.60"/>
    </edge>
    <edge id=":J1_9" function="internal">
        <lane id=":J1_9_0" index="0" speed="6.51" length="9.03" shape="-7.20,98.40 -4.75,98.05 -3.00,97.00 -1.95,95.25 -1.60,92.80"/>
    </edge>
    <edge id=":J1_10" function="internal">
        <lane id=":J1_10_0" index="0" speed="100.00" length="14.40" shape="-7.20,98.40 7.20,98.40"/>
    </edge>
    <edge id=":J1_11" function="internal">
        <lane id=":J1_11_0" index="0" speed="8.00" length="14.19" shape="-7.20,98.40 -3.35,98.95 -0.60,100.60 1.05,103.35 1.60,107.20"/>
    </edge>

    <edge id="-E0" from="J1" to="J0" priority="-1">
        <lane id="-E0_0" index="0" speed="100.00" length="92.80" shape="-7.20,101.60 -100.00,101.60"/>
    </edge>
    <edge id="-E1" from="J2" to="J1" priority="-1">
        <lane id="-E1_0" index="0" speed="100.00" length="92.80" shape="100.00,101.60 7.20,101.60"/>
    </edge>
    <edge id="-E2" from="J1" to="J3" priority="-1">
        <lane id="-E2_0" index="0" speed="100.00" length="92.80" shape="-1.60,92.80 -1.60,0.00"/>
    </edge>
    <edge id="-E3" from="J4" to="J1" priority="-1">
        <lane id="-E3_0" index="0" speed="100.00" length="92.80" shape="-1.60,200.00 -1.60,107.20"/>
    </edge>
    <edge id="E0" from="J0" to="J1" priority="-1">
        <lane id="E0_0" index="0" speed="100.00" length="92.80" shape="-100.00,98.40 -7.20,98.40"/>
    </edge>
    <edge id="E1" from="J1" to="J2" priority="-1">
        <lane id="E1_0" index="0" speed="100.00" length="92.80" shape="7.20,98.40 100.00,98.40"/>
    </edge>
    <edge id="E2" from="J3" to="J1" priority="-1">
        <lane id="E2_0" index="0" speed="100.00" length="92.80" shape="1.60,0.00 1.60,92.80"/>
    </edge>
    <edge id="E3" from="J1" to="J4" priority="-1">
        <lane id="E3_0" index="0" speed="100.00" length="92.80" shape="1.60,107.20 1.60,200.00"/>
    </edge>

    <junction id="J0" type="dead_end" x="-100.00" y="100.00" incLanes="-E0_0" intLanes="" shape="-100.00,100.00 -100.00,103.20 -100.00,100.00"/>
    <junction id="J1" type="priority" x="0.00" y="100.00" incLanes="-E3_0 -E1_0 E2_0 E0_0" intLanes=":J1_0_0 :J1_1_0 :J1_12_0 :J1_3_0 :J1_4_0 :J1_5_0 :J1_6_0 :J1_7_0 :J1_13_0 :J1_9_0 :J1_10_0 :J1_11_0" shape="-3.20,107.20 3.20,107.20 3.64,104.98 4.20,104.20 4.98,103.64 5.98,103.31 7.20,103.20 7.20,96.80 4.98,96.36 4.20,95.80 3.64,95.02 3.31,94.02 3.20,92.80 -3.20,92.80 -3.64,95.02 -4.20,95.80 -4.98,96.36 -5.98,96.69 -7.20,96.80 -7.20,103.20 -4.98,103.64 -4.20,104.20 -3.64,104.98 -3.31,105.98">
        <request index="0"  response="000000000000" foes="000100010000" cont="0"/>
        <request index="1"  response="000000000000" foes="111100110000" cont="0"/>
        <request index="2"  response="000111000000" foes="110111110000" cont="1"/>
        <request index="3"  response="000010000000" foes="100010000000" cont="0"/>
        <request index="4"  response="000110000111" foes="100110000111" cont="0"/>
        <request index="5"  response="111110000110" foes="111110000110" cont="0"/>
        <request index="6"  response="000000000000" foes="010000000100" cont="0"/>
        <request index="7"  response="000000000000" foes="110000111100" cont="0"/>
        <request index="8"  response="000000000011" foes="110000110111" cont="1"/>
        <request index="9"  response="000000000010" foes="000000100010" cont="0"/>
        <request index="10" response="000111000110" foes="000111100110" cont="0"/>
        <request index="11" response="000110011110" foes="000110111110" cont="0"/>
    </junction>
    <junction id="J2" type="dead_end" x="100.00" y="100.00" incLanes="E1_0" intLanes="" shape="100.00,100.00 100.00,96.80 100.00,100.00"/>
    <junction id="J3" type="dead_end" x="0.00" y="0.00" incLanes="-E2_0" intLanes="" shape="0.00,0.00 -3.20,0.00 0.00,0.00"/>
    <junction id="J4" type="dead_end" x="0.00" y="200.00" incLanes="E3_0" intLanes="" shape="0.00,200.00 3.20,200.00 0.00,200.00"/>

    <junction id=":J1_12_0" type="internal" x="-0.96" y="103.20" incLanes=":J1_2_0 E2_0" intLanes=":J1_4_0 :J1_5_0 :J1_6_0 :J1_7_0 :J1_10_0 :J1_11_0"/>
    <junction id=":J1_13_0" type="internal" x="0.96" y="96.80" incLanes=":J1_8_0 -E3_0" intLanes=":J1_0_0 :J1_1_0 :J1_4_0 :J1_5_0 :J1_10_0 :J1_11_0"/>

    <connection from="-E1" to="E3" fromLane="0" toLane="0" via=":J1_3_0" dir="r" state="m"/>
    <connection from="-E1" to="-E0" fromLane="0" toLane="0" via=":J1_4_0" dir="s" state="m"/>
    <connection from="-E1" to="-E2" fromLane="0" toLane="0" via=":J1_5_0" dir="l" state="m"/>
    <connection from="-E3" to="-E0" fromLane="0" toLane="0" via=":J1_0_0" dir="r" state="M"/>
    <connection from="-E3" to="-E2" fromLane="0" toLane="0" via=":J1_1_0" dir="s" state="M"/>
    <connection from="-E3" to="E1" fromLane="0" toLane="0" via=":J1_2_0" dir="l" state="m"/>
    <connection from="E0" to="-E2" fromLane="0" toLane="0" via=":J1_9_0" dir="r" state="m"/>
    <connection from="E0" to="E1" fromLane="0" toLane="0" via=":J1_10_0" dir="s" state="m"/>
    <connection from="E0" to="E3" fromLane="0" toLane="0" via=":J1_11_0" dir="l" state="m"/>
    <connection from="E2" to="E1" fromLane="0" toLane="0" via=":J1_6_0" dir="r" state="M"/>
    <connection from="E2" to="E3" fromLane="0" toLane="0" via=":J1_7_0" dir="s" state="M"/>
    <connection from="E2" to="-E0" fromLane="0" toLane="0" via=":J1_8_0" dir="l" state="m"/>

    <connection from=":J1_0" to="-E0" fromLane="0" toLane="0" dir="r" state="M"/>
    <connection from=":J1_1" to="-E2" fromLane="0" toLane="0" dir="s" state="M"/>
    <connection from=":J1_2" to="E1" fromLane="0" toLane="0" via=":J1_12_0" dir="l" state="m"/>
    <connection from=":J1_12" to="E1" fromLane="0" toLane="0" dir="l" state="M"/>
    <connection from=":J1_3" to="E3" fromLane="0" toLane="0" dir="r" state="M"/>
    <connection from=":J1_4" to="-E0" fromLane="0" toLane="0" dir="s" state="M"/>
    <connection from=":J1_5" to="-E2" fromLane="0" toLane="0" dir="l" state="M"/>
    <connection from=":J1_6" to="E1" fromLane="0" toLane="0" dir="r" state="M"/>
    <connection from=":J1_7" to="E3" fromLane="0" toLane="0" dir="s" state="M"/>
    <connection from=":J1_8" to="-E0" fromLane="0" toLane="0" via=":J1_13_0" dir="l" state="m"/>
    <connection from=":J1_13" to="-E0" fromLane="0" toLane="0" dir="l" state="M"/>
    <connection from=":J1_9" to="-E2" fromLane="0" toLane="0" dir="r" state="M"/>
    <connection from=":J1_10" to="E1" fromLane="0" toLane="0" dir="s" state="M"/>
    <connection from=":J1_11" to="E3" fromLane="0" toLane="0" dir="l" state="M"/>

</net>
