<configuration>
    <net-file value="scenario_1.net.xml"/>
    <route-files value="scenario_1.rou.xml"/>
</configuration>
